%mem=50GB
%nprocshared=48
%chk=ground.chk 
#P PBE1PBE/6-311G(d,p) opt em=GD3BJ scrf=solvent=H2O

ground

0 1
 C                 -4.74160000    4.38570000   -0.35320000
 C                 -4.79980000    3.02640000   -0.28250000
 C                 -3.66650000    2.29350000   -0.25140000
 C                 -2.40970000    3.08760000   -0.39780000
 C                 -2.40180000    4.55890000   -0.16910000
 C                 -3.61580000    5.14560000   -0.26030000
 C                 -0.91010000    2.02890000    1.05410000
 C                  0.04950000    3.11790000    0.53700000
 C                 -0.07440000    4.45720000    0.33560000
 C                 -1.22620000    5.15290000    0.13080000
 C                  1.23990000    2.52970000    0.33110000
 C                  2.39300000    3.20810000    0.33300000
 C                  2.30090000    4.54660000    0.37060000
 C                  1.09020000    5.15710000    0.33280000
 C                 -5.93990000    2.32520000   -0.18010000
 C                 -5.93240000    0.98280000   -0.04340000
 C                 -4.76370000    0.30080000   -0.01480000
 C                 -3.58100000    0.95650000   -0.07850000
 C                 -4.79270000   -1.04600000    0.07560000
 C                 -3.66580000   -1.77120000    0.00950000
 C                 -2.55140000   -1.04250000   -0.14060000
 C                 -2.38370000    0.30340000   -0.06860000
 C                 -1.13760000    0.88530000    0.06310000
 C                 -1.43530000   -1.93230000   -0.42430000
 C                  0.57350000   -0.61650000   -1.20310000
 C                  0.12740000    0.52020000   -0.30930000
 C                  1.24170000    1.21680000    0.04260000
 C                  1.38730000   -1.62680000   -0.39320000
 C                  2.35620000   -0.78600000    0.09150000
 C                  2.41810000    0.56570000    0.10140000
 C                  3.60330000    1.20760000    0.29990000
 C                  3.57380000    2.55440000    0.31810000
 C                 -7.10780000    0.32730000    0.07030000
 C                 -7.09460000   -1.01010000    0.19370000
 C                 -5.95090000   -1.71150000    0.18490000
 C                 -5.93600000   -3.05230000    0.27580000
 C                 -4.79980000   -3.77810000    0.22720000
 C                 -3.61940000   -3.13430000    0.07290000
 C                 -2.47630000   -3.88470000    0.05270000
 C                 -1.25480000   -3.27390000    0.10260000
 C                  0.05590000   -3.67130000    0.23320000
 C                  1.20590000   -2.99150000   -0.13730000
 C                  2.27500000   -3.84690000   -0.13920000
 C                  3.63460000   -3.50940000   -0.57760000
 C                  3.57110000   -1.21040000    0.76280000
 C                  4.91090000   -0.75260000    0.42430000
 C                  4.81540000    0.58530000    0.35270000
 C                 -4.87520000   -5.12240000    0.37130000
 C                 -3.75150000   -5.85880000    0.26850000
 C                 -2.60010000   -5.23110000   -0.01230000
 C                 -1.55270000   -6.00460000   -0.35100000
 C                  0.25010000   -4.83260000    0.92580000
 C                  1.18210000   -5.71110000    0.47850000
 C                  2.34830000   -5.15970000    0.12180000
 C                  3.53730000   -5.83440000    0.13520000
 C                  4.78860000   -5.26120000    0.10880000
 C                  4.93530000   -3.92150000   -0.02740000
 C                  5.93240000   -2.99780000    0.20090000
 C                  5.95840000   -1.60980000    0.26700000
 C                  7.10860000   -0.88790000    0.23980000
 C                  7.09120000    0.47000000    0.27230000
 C                  5.98050000    1.23650000    0.31100000
 C                  5.91690000    2.58240000    0.31850000
 C                  4.73410000    3.23780000    0.34540000
 C                  4.64970000    4.58120000    0.37800000
 C                  3.46450000    5.22520000    0.38470000
 C                 -1.25520000    6.50110000    0.13210000
 C                 -2.44060000    7.13330000   -0.01230000
 C                 -3.60530000    6.48370000   -0.17760000
 C                  1.05960000    6.50680000    0.31560000
 C                 -0.10330000    7.19060000    0.26140000
 C                  3.40780000    6.56550000    0.39430000
 C                  2.22160000    7.18790000    0.36110000
 C                 -3.70450000   -7.19700000    0.44110000
 C                 -2.53220000   -7.85870000    0.48100000
 C                 -1.38350000   -7.22440000    0.18790000
 C                 -0.14450000   -7.72790000    0.42320000
 C                  1.04340000   -7.05880000    0.46680000
 C                  2.20110000   -7.75270000    0.44480000
 C                  3.40540000   -7.15990000    0.34080000
 O                 -1.41230000   -2.21380000   -1.82670000
 O                  3.76380000   -2.77280000   -1.78580000
 O                 -1.86330000    2.26690000    2.09850000
 O                 -0.70360000   -5.29420000    1.79440000
 O                 -8.30980000    0.97000000    0.06230000
 O                  8.31760000   -1.51070000    0.14550000
 O                 -0.09910000    8.55550000    0.25580000
 O                 -6.07110000   -5.73810000    0.59930000
 H                 -5.70350000    4.92880000   -0.37660000
 H                 -2.77770000    3.28490000    0.65190000
 H                 -2.67710000    3.29200000   -1.48020000
 H                 -0.22720000    1.50440000    1.79170000
 H                 -6.88910000    2.88630000   -0.18800000
 H                 -0.64400000   -1.45620000    0.14710000
 H                 -0.00880000   -0.83740000   -2.09850000
 H                  1.32260000   -0.18140000   -1.91680000
 H                 -8.06380000   -1.53010000    0.28320000
 H                 -6.91110000   -3.55540000    0.38920000
 H                  3.60870000   -3.10240000    0.43620000
 H                  3.46170000   -1.80000000    1.70220000
 H                  3.72120000   -1.52220000   -0.28740000
 H                 -0.71930000   -5.55930000   -0.90930000
 H                  5.67560000   -5.86080000    0.37210000
 H                  6.90020000   -3.49480000    0.39780000
 H                  8.06650000    0.98680000    0.23590000
 H                  6.86010000    3.15480000    0.30890000
 H                  5.58310000    5.17060000    0.38810000
 H                 -2.51590000    8.23230000    0.01430000
 H                 -4.54560000    7.05680000   -0.24540000
 H                  4.32900000    7.17300000    0.41270000
 H                  2.24970000    8.29060000    0.35870000
 H                 -4.60770000   -7.77160000    0.70260000
 H                 -2.52120000   -8.90830000    0.82100000
 H                 -0.11050000   -8.81190000    0.63870000
 H                  2.18680000   -8.85570000    0.50000000
 H                  4.30280000   -7.80230000    0.37850000
 H                 -0.57460000   -2.65450000   -2.00220000
 H                  4.53830000   -2.20900000   -1.68540000
 H                 -2.70420000    1.90150000    1.80900000
 H                 -1.51880000   -4.77660000    1.78870000
 H                 -9.02240000    0.31650000    0.14800000
 H                  9.02240000   -0.84490000    0.10060000
 H                 -0.98920000    8.90830000    0.11680000
 H                 -5.95760000   -6.69930000    0.63080000

--link1--
%mem=50GB
%nprocshared=48
%oldchk=ground.chk
%chk=excited.chk
#P PBE1PBE/6-311G(d,p) opt em=GD3BJ TD scrf=solvent=H2O geom=check

jifa_exc

0 1
